10
 produced by gV
 C     0.00000000   1.31405400  -0.77434500
 C     0.00000000  -1.31405400  -0.77434500
 C     0.00000000   0.00000000   0.00000000
 O     0.00000000   0.00000000   1.21582500
 H     0.00000000   1.18206200  -1.85902200
 H     0.00000000  -1.18206200  -1.85902200
 H    -0.87985900   1.89899800  -0.48320100
 H    -0.87985900  -1.89899800  -0.48320100
 H     0.87985900   1.89899800  -0.48320100
 H     0.87985900  -1.89899800  -0.48320100

