15
 produced by gV
 C    -0.18016086  -0.53481131   0.00000000
 C     1.24562019  -0.63465272   0.00000000
 N     1.99508013   0.52403941   0.00000000
 C     1.34417332   1.73246321   0.00000000
 N     0.00289887   1.95124909   0.00000000
 C    -0.73797426   0.79398964   0.00000000
 N    -1.20907396  -1.48899215   0.00000000
 C    -2.35066687  -0.79088013   0.00000000
 N    -2.12246810   0.62321216   0.00000000
 N     1.89865382  -1.83776046   0.00000000
 H     1.37646034  -2.70039325   0.00000000
 H     2.90527537  -1.87833069   0.00000000
 H    -2.80767698   1.35812569   0.00000000
 H     1.99527366   2.62411002   0.00000000
 H    -3.35091683  -1.20240032   0.00000000

