 13
 Alanine (Angstrom units) PAM 2008
 C      0.02533    -0.21954    -0.42314
 C     -1.24447     0.65561    -0.32221
 C      1.29893     0.66803    -0.19468
 N      0.02183    -1.26463     0.64001
 O      1.79741     1.37282    -1.05095
 O      1.80534     0.60848     1.09051
 H      0.08240    -0.64714    -1.42869
 H     -2.13134     0.05821    -0.51448
 H     -1.20168     1.45646    -1.05393
 H     -1.32805     1.09190     0.66888
 H     -0.94033    -1.61137     0.76519
 H      0.56318    -2.07577     0.30454
 H      1.25144    -0.09307     1.51897
