 15
 Aspartate (Angstrom units) PAM 2008
 C     -0.50880    -0.01432     0.43750
 C      0.87729     0.68227     0.31267
 C      2.04880    -0.35981     0.13881
 C     -1.68056     0.99114     0.08031
 N     -0.61463    -1.07891    -0.59965
 O      3.13679    -0.17480     0.68768
 O      1.76065    -1.39420    -0.65712
 O     -2.03398     1.95808     0.74622
 O     -2.22822     0.60530    -1.09572
 H     -0.63424    -0.36947     1.46386
 H      1.07353     1.32083     1.17013
 H      0.87440     1.31711    -0.57241
 H     -1.08147    -1.87336    -0.12675
 H      0.63837    -1.35164    -0.76200
 H     -1.62793    -0.25821    -1.22353
