18
 produced by gV
C   0.003635  -2.505949   0.000000
H   0.004434  -3.606668   0.000000
C   1.252245  -1.915325   0.000000
C   1.587563  -0.544696   0.000000
C  -1.251028  -1.915937   0.000000
C   0.734127   0.535625   0.000000
C  -1.588675  -0.551274   0.000000
C  -0.735718   0.535980   0.000000
H   2.111494  -2.600640   0.000000
H   2.664703  -0.321227   0.000000
H  -2.105878  -2.606638   0.000000
H  -2.665633  -0.326801   0.000000
C   1.140542   1.919986   0.000000
H   2.158223   2.255964   0.000000
C  -0.000161   2.721107   0.000000
H  -0.000941   3.795515   0.000000
C  -1.143524   1.913583   0.000000
H  -2.160434   2.251897   0.000000

