12
 produced by gV
H   0.000000  -2.482348   0.000000
C   0.000000   1.395248   0.000000
C   1.208320   0.697624   0.000000
C   1.208320  -0.697624   0.000000
C   0.000000  -1.395248   0.000000
C  -1.208320  -0.697624   0.000000
C  -1.208320   0.697624   0.000000
H   0.000000   2.482360   0.000000
H   2.149787   1.241180   0.000000
H   2.149787  -1.241180   0.000000
H  -2.149787  -1.241180   0.000000
H  -2.149787   1.241180   0.000000

