 19
 Bicyclo_2.2.1_heptane (Angstrom units) PAM 2008
 C     -1.08385    -1.06555     0.31533
 H     -1.49505    -1.58895    -0.55827
 H     -1.47255    -1.57595     1.20783
 C      0.47195    -1.05365     0.30753
 C     -0.06835     1.15235     0.30753
 C     -1.45345     0.44395     0.31543
 H     -2.06045     0.71825    -0.55807
 H     -2.03425     0.71685     1.20823
 C      0.78055     0.19125     1.18963
 H      1.84375     0.45165     1.23083
 H      0.42075     0.10305     2.22033
 C      0.94265    -0.56885    -1.09417
 H      2.02385    -0.71925    -1.22377
 H      0.44345    -1.11445    -1.90647
 C      0.57275     0.94015    -1.09407
 H      1.46195     1.57335    -1.22407
 H     -0.12235     1.19285    -1.90647
 H      0.92765    -1.99465     0.63133
 H     -0.09905     2.19755     0.63143
