 24
 Caffeine (Angstrom units) PAM 2008
 N     -2.21207    -0.26865    -0.00937
 C     -0.80897    -0.26865    -0.00937
 C     -0.42657     1.10425    -0.00937
 N     -1.54867     1.92045    -0.00627
 C     -2.61917     1.05645    -0.00697
 N      0.91983     1.46385    -0.02297
 C      1.92693     0.45035     0.00763
 N      1.49093    -0.91105    -0.01937
 C      0.12903    -1.36685    -0.01257
 O      3.10543     0.74935     0.04003
 C      2.56913    -1.93835    -0.05017
 O     -0.12267    -2.55705    -0.00717
 C      1.31343     2.89125     0.06333
 C     -3.04857    -1.46925    -0.00617
 H      2.90833    -2.10665    -1.08627
 H      2.18973    -2.89435     0.35633
 H      3.43513    -1.60805     0.55193
 H      1.16143     3.27675     1.08653
 H      0.69883     3.49265    -0.63177
 H      2.38063     3.00675    -0.20577
 H     -3.65247     1.37995    -0.00647
 H     -3.65287    -1.53155     0.91683
 H     -2.41257    -2.38545    -0.05257
 H     -3.72417    -1.48605    -0.88007
