 11
 Cyclopentadiene (Angstrom units) PAM 2008
 C      1.13271    -0.00034     0.00000
 C      0.18691     1.18316     0.00000
 C     -1.09179     0.73726     0.00000
 C     -1.09179    -0.73794     0.00000
 C      0.18441    -1.18154     0.00000
 H      1.78991    -0.00034    -0.88870
 H      1.78991    -0.00034     0.88870
 H      0.54881     2.19226     0.00000
 H     -1.99649     1.31686     0.00000
 H     -1.99649    -1.31754     0.00000
 H      0.54391    -2.19154     0.00000
