 24
 Cyclooctane (Angstrom units) PAM 2008
 C     -1.08679    -1.38823     1.09963
 C      0.44861    -1.38823     1.09963
 C      1.11861    -0.00383     1.09963
 C      1.78501     0.31657    -0.24897
 C      1.08811     1.38497    -1.10327
 C     -0.44729     1.38947    -1.09777
 C     -1.12069     0.00687    -1.09907
 C     -1.78499    -0.31683     0.24973
 H     -1.42889    -2.38973     0.76863
 H     -1.44559    -1.28273     2.14383
 H     -1.87289     0.61357     0.84743
 H     -0.39269    -0.78003    -1.36927
 H      1.87361    -0.61543    -0.84427
 H      1.44291     1.27287    -2.14807
 H     -2.82889    -0.64283     0.07093
 H      2.82871     0.64247    -0.06917
 H     -1.88609    -0.02153    -1.89737
 H      1.43451     2.38707    -0.77827
 H     -0.79449     1.96237    -1.98047
 H     -0.80049     1.96947    -0.22057
 H      0.80721    -1.97053     0.22623
 H      0.79471    -1.95713     1.98543
 H      0.38611     0.78027     1.36553
 H      1.88171     0.03107     1.89983
