 18
 Cyclohexane (Angstrom units) PAM 2008
 C     -0.76844    -1.12176    -0.58883
 H     -1.14714    -2.15936    -0.54173
 C      0.76736    -1.12346    -0.58633
 C      1.32476     0.30704    -0.58813
 C      0.76896     1.12144     0.58917
 C     -0.76684     1.12394     0.58687
 C     -1.32524    -0.30656     0.58747
 H      2.42886     0.28224    -0.54203
 H      1.13806    -1.66706     0.30307
 H      1.14516    -1.67706    -1.46573
 H     -1.13934    -0.70076    -1.54263
 H      1.13956     0.69864     1.54247
 H      1.14806     2.15844     0.54367
 H     -1.14484     1.67704     1.46597
 H     -1.13714     1.66774    -0.30283
 H     -1.06934    -0.80646     1.54167
 H     -2.42944    -0.28076     0.53967
 H      1.06706     0.80674    -1.54173
