 15
 Cyclopentane (Angstrom units) PAM 2008
 C     -0.76961    -1.05733     0.04901
 H     -1.16111    -1.65723    -0.79009
 C      0.76929    -1.05753     0.04611
 C      1.24319     0.40647     0.04991
 C      0.00199     1.30577    -0.08789
 C     -1.24401     0.40257    -0.05659
 H     -1.15711    -1.52593     0.96931
 H      1.15539    -1.58823    -0.84099
 H      1.16239    -1.59823     0.92341
 H      1.78689     0.63607     0.98181
 H      1.95269     0.59007    -0.77409
 H     -0.03351     2.04937     0.72621
 H      0.04069     1.88057    -1.02859
 H     -1.89331     0.66327     0.79631
 H     -1.85391     0.55027    -0.96389
