 14
 Cystein (Angstrom units) PAM 2008
 C      0.35717    -0.36617    -0.23366
 C      1.66811     0.25768     0.36596
 C     -0.59239     0.77610    -0.67907
 N     -0.27076    -1.18822     0.83942
 O      2.56224     0.73098    -0.30865
 O      1.71186     0.25283     1.74651
 S     -2.08219     0.10623    -1.45325
 H      0.63077    -0.96270    -1.10924
 H     -0.04637     1.42053    -1.36649
 H     -0.85239     1.37309     0.19375
 H     -1.28486    -1.23944     0.66239
 H      0.07285    -2.15642     0.75510
 H      0.89308    -0.24961     1.99337
 H     -2.76711     1.24513    -1.40614
