  8
Ethane (Angstrom units)
C      -0.76091    -0.00071     0.00034
C       0.76049    -0.00071     0.00034
H      -1.16001     1.02029     0.00034
H      -1.15621    -0.50891    -0.88656
H      -1.16311    -0.50801     0.88444
H       1.16009    -1.02131     0.00054
H       1.15969     0.50959    -0.88366
H       1.15999     0.50979     0.88424
