 24
 Fullerene_C24 (Angstrom units) PAM 2008
 C     -0.73400    -1.12250    -1.93998
 C      0.73410    -1.29290    -1.83078
 C      1.32990     0.11490    -1.70478
 C      0.25380     1.03730    -1.88338
 C     -1.01750     0.21210    -2.11708
 C     -0.05070     1.98650    -0.86008
 C      0.72080     2.01290     0.34202
 C      1.79680     1.09030     0.52062
 C      2.10130     0.14130    -0.50278
 C      1.99360    -1.25400     0.12542
 C      1.01770    -2.01190    -0.69258
 C     -1.99390     0.63820    -1.08658
 C     -1.50970     1.75610    -0.44708
 C     -0.25000     1.79500     1.50922
 C     -1.50160     1.50970     1.01432
 C     -1.32990    -1.59670    -0.60858
 C     -0.25380    -2.14480     0.15472
 C     -2.10140    -0.51580    -0.08198
 C     -1.79670     0.01710     1.20802
 C      0.25010     0.62050     2.26152
 C      1.50150     0.28990     1.79542
 C      1.50960    -1.14030     1.40822
 C     -0.72080    -0.53100     1.97142
 C      0.05070    -1.61180     1.44472
