  9
 Furan (Angstrom units) PAM 2008
 C     -0.86213    -0.90784     0.00007
 H     -1.63433    -1.64264    -0.00003
 C      0.50727    -0.90524     0.00007
 C      0.92057     0.47886    -0.00003
 C     -0.22323     1.23186    -0.00003
 O     -1.35123     0.40376    -0.00013
 H      1.17117    -1.74724     0.00017
 H      1.93767     0.81866     0.00007
 H     -0.46573     2.26986    -0.00013
