 20
 Glutamine (Angstrom units) PAM 2008
 C      1.43821    -0.01953    -0.23131
 C      0.02981     0.61385    -0.10124
 C     -1.10406    -0.43008    -0.15931
 C     -2.49479     0.21960     0.04248
 C      2.52713     1.08674    -0.47504
 N     -3.58038    -0.73270     0.00834
 N      1.88811    -0.83032     0.93423
 O     -2.67756     1.39808     0.28508
 O      2.33399     2.09725    -1.12252
 O      3.75564     0.80137     0.08940
 H      1.45673    -0.67495    -1.10612
 H     -0.09374     1.33363    -0.90741
 H     -0.03252     1.16674     0.83420
 H      1.47005    -1.76976     0.87612
 H      1.50655    -0.41123     1.79598
 H      3.58165    -0.03101     0.59877
 H     -0.97574    -1.18593     0.61394
 H     -1.09083    -0.94458    -1.11894
 H     -4.48038    -0.25469    -0.12340
 H     -3.45786    -1.43249    -0.73325
