 33
 Ibuprofen (Angstrom units) PAM 2008
 C     -0.73518    -1.71531     0.54084
 C      0.66702    -1.71531     0.54084
 C      1.36882    -0.50871     0.54084
 C      0.68012     0.71469     0.54244
 C     -0.72388     0.71049     0.54184
 C     -1.42578    -0.49491     0.54174
 C      1.44042     2.01049     0.54614
 C      2.00712     2.35119    -0.85356
 C      0.88082     2.69429    -1.83426
 C     -1.48128    -3.03071     0.51324
 C     -2.45548    -3.11871     1.67574
 O     -3.55938    -2.31251     1.49714
 C     -2.21048    -3.23401    -0.81546
 C      3.00392     3.51189    -0.74616
 O     -2.37438    -3.79441     2.67354
 H      1.21622    -2.65581     0.54234
 H      2.45742    -0.51851     0.54144
 H     -1.27008     1.65219     0.54104
 H     -2.51878    -0.49311     0.54964
 H     -0.75208    -3.87751     0.65704
 H     -1.52028    -3.11961    -1.66116
 H     -3.01578    -2.49711    -0.94886
 H     -2.66038    -4.23121    -0.88276
 H      2.27092     1.95589     1.27954
 H      0.80042     2.84279     0.90024
 H      2.55052     1.45259    -1.24016
 H      3.84752     3.26149    -0.09476
 H      2.53362     4.41589    -0.34436
 H      3.41532     3.77109    -1.72806
 H      0.32002     3.57989    -1.51786
 H      0.16562     1.86739    -1.92106
 H      1.27342     2.89619    -2.83636
 H     -4.19618    -2.37091     2.25924
