 16
 iso-Indene (Angstrom units) PAM 2008
 C     -0.00027    -2.49436    -0.00031
 H     -0.00017    -3.56996    -0.00041
 C     -0.72317    -0.28096    -0.00001
 C      0.72343    -0.28106    -0.00001
 C      1.42693     0.90544    -0.00001
 C      0.69443     2.11654     0.00019
 C     -0.69427     2.11654     0.00029
 C     -1.42667     0.90524     0.00019
 C     -1.15227    -1.68406    -0.00021
 C      1.15213    -1.68396    -0.00021
 H      2.51353     0.92344    -0.00011
 H      1.23893     3.05984     0.00019
 H     -1.23887     3.05984     0.00049
 H     -2.51347     0.92334     0.00029
 H     -2.17257    -2.00776    -0.00021
 H      2.17233    -2.00816    -0.00011
