 24
 L-Glucose (Angstrom units) PAM 2008
 C     -0.72523    -0.62270     0.41187
 C      0.81607    -0.62270     0.41187
 O      1.26997     0.74260     0.41187
 C      0.93287     1.54490    -0.73843
 C     -0.51233     1.34960    -1.27103
 C     -1.26743     0.07350    -0.85282
 C      1.42327    -1.17760     1.71087
 O      1.10047    -2.58360     1.67298
 O      1.08927     2.85000    -0.23183
 O     -0.29593     1.27420    -2.69013
 O     -2.59773     0.55020    -0.58652
 O     -1.23373    -1.95720     0.30997
 H      1.22027    -1.15780    -0.47783
 H      1.70307     1.42570    -1.53192
 H      0.76997     2.90880     0.70097
 H     -1.13343     2.24820    -1.02792
 H     -1.10813     1.54740    -3.17063
 H     -1.30683    -0.65590    -1.70042
 H     -3.18993    -0.21290    -0.39113
 H     -1.14423    -0.16020     1.33377
 H     -0.68983    -2.58290     0.86477
 H      2.52227    -1.05240     1.71968
 H      0.98627    -0.71570     2.61267
 H      1.37097    -3.01360     2.50927
