 16
 Pentalene (Angstrom units) PAM 2008
 C     -0.28910    -1.82610    -0.00009
 H     -0.69460    -2.34230    -0.88949
 H     -0.69480    -2.34260     0.88871
 C      1.23680    -1.81870    -0.00009
 C      1.72430    -0.54950     0.00011
 C      0.59000     0.36090     0.00011
 C     -0.59000    -0.36090     0.00001
 C      0.28910     1.82630    -0.00009
 C     -1.23670     1.81860     0.00021
 C     -1.72410     0.54940     0.00011
 H      1.78810    -2.73860    -0.00009
 H      2.75090    -0.23390     0.00001
 H      0.69490     2.34270     0.88931
 H      0.69440     2.34230    -0.88899
 H     -1.78840     2.73850     0.00031
 H     -2.75080     0.23390     0.00001
