 24
 Phenanthrene (Angstrom units) PAM 2008
 C     -2.07775    -2.89269    -0.00268
 H     -2.63865    -3.82539    -0.00328
 C     -0.69735    -2.90139    -0.00338
 C      0.03065    -1.68139    -0.00268
 C     -0.66505    -0.44919    -0.00048
 C     -2.08605    -0.46859     0.00002
 C     -2.77785    -1.66369    -0.00118
 C      1.47815    -1.68889    -0.00418
 C      0.09045     0.79751     0.00112
 C      1.50495     0.75111    -0.00058
 C      2.18125    -0.52889    -0.00348
 C      2.24955     1.96101     0.00092
 H      3.33725     1.91271    -0.00048
 C      1.60265     3.18071     0.00442
 C      0.18935     3.23231     0.00622
 C     -0.54995     2.06591     0.00452
 H      1.98145    -2.65539    -0.00618
 H     -0.15105    -3.84349    -0.00458
 H     -2.62885     0.47791     0.00122
 H     -3.86645    -1.67169    -0.00088
 H      3.27105    -0.52789    -0.00508
 H      2.16995     4.10941     0.00572
 H     -0.30755     4.20091     0.00902
 H     -1.64005     2.10901     0.00592
