 11
 Pyridine (Angstrom units) PAM 2008
 C     -0.87315    -1.19701     0.00026
 H     -1.43665    -2.13711     0.00026
 C      0.53175    -1.18791     0.00016
 C      1.19315     0.04349    -0.00004
 C      0.44375     1.22349    -0.00024
 C     -0.95815     1.13029    -0.00004
 N     -1.61525    -0.05891    -0.00014
 H      2.28215     0.08329    -0.00014
 H      1.08915    -2.12081     0.00036
 H      0.93195     2.19449    -0.00024
 H     -1.58875     2.02669    -0.00024
