 14
 Serine (Angstrom units) PAM 2008
 C      0.28893    -0.19857    -0.40646
 C     -1.06234     0.55323    -0.27130
 C      1.47660     0.80575    -0.20380
 N      0.38210    -1.23640     0.65775
 O     -2.10084    -0.43437    -0.33499
 O      1.84614     1.60059    -1.04677
 O      2.06104     0.73072     1.04513
 H      0.35095    -0.62281    -1.41235
 H     -1.14370     1.29120    -1.07785
 H     -1.08445     1.09272     0.68373
 H     -0.57249    -1.58414     0.83392
 H      0.90322    -2.04291     0.28225
 H      1.59128    -0.03660     1.46368
 H     -2.93646     0.08158    -0.21293
