  9
 Thiophene (Angstrom units) PAM 2008
 C     -0.98868    -0.96938    -0.00021
 H     -1.63308    -1.83068    -0.00041
 C      0.37082    -0.92448    -0.00031
 C      0.90232     0.42272    -0.00011
 C     -0.06008     1.38352     0.00059
 S     -1.63708     0.64522     0.00059
 H      1.02222    -1.78838    -0.00071
 H      1.96742     0.60912    -0.00041
 H      0.05612     2.45232     0.00099
