 28
 trans-Decalin (Angstrom units) PAM 2008
 C     -1.79671    -0.73174    -0.01317
 H     -2.17181    -0.32074    -0.96987
 H     -2.16961    -1.77134     0.04093
 C     -0.25411    -0.73184    -0.01067
 C      0.29999     0.71416    -0.01357
 C     -0.29691     1.53636     1.14712
 C     -1.83021     1.52506     1.11833
 C     -2.36441     0.08706     1.15243
 H      0.09879    -1.23244     0.92273
 H      0.05679     1.13346     2.11513
 H      0.07219     2.57736     1.09503
 H     -2.22841     2.09886     1.97532
 H     -2.19461     2.03966     0.20833
 H     -2.09691    -0.39054     2.11483
 H     -3.46921     0.09086     1.10862
 H      0.00279     1.19316    -0.97697
 C      1.84309     0.72336     0.08183
 H      2.16419     0.80186     1.13743
 H      2.22439     1.63396    -0.41577
 C      0.26789    -1.53494    -1.22408
 H      0.30539    -2.60584    -0.95207
 H     -0.44311    -1.46494    -2.06827
 C      1.65189    -1.06954    -1.70127
 H      2.18099    -1.90584    -2.19297
 H      1.53649    -0.28554    -2.47477
 C      2.49039    -0.52174    -0.54227
 H      2.60979    -1.30764     0.22863
 H      3.51099    -0.28054    -0.89087
