 27
 Tryptophane (Angstrom units) PAM 2008
 C      2.22911    -0.95196     0.24396
 C      1.45102     0.18819     0.96641
 C      0.44896     0.89248     0.06615
 C     -0.98186     0.62937    -0.01748
 C     -1.51140     1.49894    -0.97872
 C      0.71732     1.87523    -0.81407
 C     -2.87622     1.51378    -1.30485
 C     -3.69330     0.63712    -0.64164
 C     -3.18204    -0.24610     0.33211
 C     -1.84867    -0.25769     0.64639
 C      3.29422    -1.55469     1.22596
 N     -0.45232     2.25763    -1.47857
 N      1.31505    -2.06185    -0.14587
 O      4.35995    -1.02607     1.47910
 O      2.90690    -2.74280     1.81610
 H      1.65633     2.35899    -1.04769
 H     -0.52893     3.02158    -2.14877
 H     -4.75280     0.61808    -0.86427
 H     -3.86168    -0.92131     0.83465
 H     -1.46839    -0.93841     1.39789
 H     -3.26252     2.19214    -2.05355
 H      0.93905    -0.23113     1.83042
 H      2.18493     0.90289     1.33510
 H      2.75648    -0.52574    -0.61455
 H      1.69872    -2.52028    -0.98602
 H      0.41342    -1.66158    -0.44125
 H      2.04869    -2.94678     1.36306
