 19
 Valine (Angstrom units) PAM 2008
 C      0.72192     0.43779     0.09578
 C     -0.64003    -0.30855    -0.07714
 C     -1.84193     0.65398     0.08278
 C     -0.77236    -1.46858     0.93693
 C      1.92539    -0.56395    -0.01084
 N      0.93364     1.43303    -0.99493
 O      2.37096    -1.20525     0.92156
 O      2.44991    -0.67783    -1.28605
 H      0.74715     0.89420     1.09009
 H     -0.66411    -0.72434    -1.08534
 H      1.59718     2.14574    -0.65513
 H      0.05827     1.94299    -1.17201
 H      1.99033     0.04534    -1.78389
 H     -2.76993     0.09647     0.00499
 H     -1.85577     1.42174    -0.68375
 H     -1.81852     1.13844     1.05447
 H     -1.72085    -1.97636     0.79355
 H      0.02546    -2.19302     0.81432
 H     -0.73672    -1.09182     1.95460
