10

H  0.000000  2.409473 -0.149324
H  0.000000 -2.409473 -0.149324
H  0.000000  1.271227  2.102636
H  0.000000 -1.271227  2.102636
C  0.000000  1.325691 -0.063084
C  0.000000 -1.325691 -0.063084
C  0.000000  0.693091  1.182942
C  0.000000 -0.693091  1.182942
N  0.000000  0.674207 -1.238923
N  0.000000 -0.674207 -1.238923
