18
Naphthalene. C10H8. mp2(full)/6-31G*
C 0. 0. 0.7154678677
C 0. 0. -0.7154678677
C 0. 1.2401192068 1.4019510264
C 0. -1.2401192068 1.4019510264
C 0. 1.2401192068 -1.4019510264
C 0. -1.2401192068 -1.4019510264
C 0. -2.4297005635 0.7065024619
C 0. 2.4297005635 0.7065024619
H 0. 1.2388471061 2.4907879883
H 0. -1.2388471061 2.4907879883
C 0. -2.4297005635 -0.7065024619
C 0. 2.4297005635 -0.7065024619
H 0. 1.2388471061 -2.4907879883
H 0. -1.2388471061 -2.4907879883
H 0. -3.3743315665 1.2449560719
H 0. 3.3743315665 1.2449560719
H 0. -3.3743315665 -1.2449560719
H 0. 3.3743315665 -1.2449560719
