18

H  0.971323  1.220135  0.000000
H -0.971323 -1.220135  0.000000
H -2.098079  0.984714  0.000000
H  2.098079 -0.984714  0.000000
H -0.146883  3.418487  0.000000
H  0.146883 -3.418487  0.000000
H -2.193461  4.766061  0.000000
H  2.193461 -4.766061  0.000000
H -3.225681  3.230484  0.000000
H  3.225681 -3.230484  0.000000
C  0.000000  0.721494  0.000000
C  0.000000 -0.721494  0.000000
C  1.125014 -1.479515  0.000000
C -1.125014  1.479515  0.000000
C  1.121071 -2.928797  0.000000
C -1.121071  2.928797  0.000000
C  2.237376 -3.682263  0.000000
C -2.237376  3.682263  0.000000
