26
hydrazobenzene
N  0.679878000  0.018822000  1.879057000
N -0.679878000 -0.018822000  1.879057000
C -1.526930000 -0.094722000  0.804902000
C -1.254967000 -0.833285000 -0.360662000
C -2.763857000  0.567610000  0.910096000
C -2.186272000 -0.883947000 -1.410359000
C -3.408542000 -0.203623000 -1.302222000
C -3.697954000  0.520957000 -0.136561000
C  1.526930000  0.094722000  0.804902000
C  1.254967000  0.833285000 -0.360662000
C  2.763857000 -0.567610000  0.910096000
C  2.186272000  0.883947000 -1.410359000
C  3.408542000  0.203623000 -1.302222000
C  3.697954000 -0.520957000 -0.136561000
H  4.140725000  0.244565000 -2.126112000
H  4.660388000 -1.051487000 -0.042242000
H  3.007975000 -1.138545000  1.821763000
H  0.310200000  1.391678000 -0.462249000
H  1.958665000  1.464328000 -2.320297000
H  1.102215000 -0.000055000  2.744886000
H -4.140725000 -0.244565000 -2.126112000
H -4.660388000  1.051487000 -0.042242000
H -3.007975000  1.138545000  1.821763000
H -0.310200000 -1.391678000 -0.462249000
H -1.958665000 -1.464328000 -2.320297000
H -1.102215000  0.000055000  2.744886000
